gdm_ecosystem/LineCodes.dss
new LineCode.3p_oh_al_acsr_4/0_penguin_3 NPhases=3 Units=km RMatrix=(0.3635667 0.09006667 0.09006667 |0.09006667 0.3635667 0.09006667 |0.09006667 0.09006667 0.3635667 ) XMatrix=(0.6385333 0.2202333 0.2202333 |0.2202333 0.6385333 0.2202333 |0.2202333 0.2202333 0.6385333 ) CMatrix=(7.4482669999999995 -3.1846329999999994 -3.1846329999999994 |-3.1846329999999994 7.4482669999999995 -3.1846329999999994 |-3.1846329999999994 -3.1846329999999994 7.4482669999999995 ) NormAmps=325.0
new LineCode.3p_ug_al_3 NPhases=3 Units=km RMatrix=(0.445 0.1745 0.1745 |0.1745 0.445 0.1745 |0.1745 0.1745 0.445 ) XMatrix=(0.5326 0.2912 0.2912 |0.2912 0.5326 0.2912 |0.2912 0.2912 0.5326 ) CMatrix=(145.291 -72.088 -72.088 |-72.088 145.291 -72.088 |-72.088 -72.088 145.291 ) NormAmps=285.0
new LineCode.3p_oh_al_acsr_4/0_penguin_3 NPhases=3 Units=km RMatrix=(0.3635667 0.09006667 0.09006667 |0.09006667 0.3635667 0.09006667 |0.09006667 0.09006667 0.3635667 ) XMatrix=(0.6385333 0.2202333 0.2202333 |0.2202333 0.6385333 0.2202333 |0.2202333 0.2202333 0.6385333 ) CMatrix=(7.4482669999999995 -3.1846329999999994 -3.1846329999999994 |-3.1846329999999994 7.4482669999999995 -3.1846329999999994 |-3.1846329999999994 -3.1846329999999994 7.4482669999999995 ) NormAmps=325.0
new LineCode.3p_ug_al_3 NPhases=3 Units=km RMatrix=(0.445 0.1745 0.1745 |0.1745 0.445 0.1745 |0.1745 0.1745 0.445 ) XMatrix=(0.5326 0.2912 0.2912 |0.2912 0.5326 0.2912 |0.2912 0.2912 0.5326 ) CMatrix=(145.291 -72.088 -72.088 |-72.088 145.291 -72.088 |-72.088 -72.088 145.291 ) NormAmps=285.0
